# File generated by Flopy version 3.3.2 on 02/04/2021 at 16:44:32.
BEGIN options
END options

BEGIN timing
  TDIS6  mymodel.tdis
END timing

BEGIN models
  gwf6  mymodel.nam  mymodel
END models

BEGIN exchanges
END exchanges

BEGIN solutiongroup  1
  ims6  mymodel.ims  mymodel
END solutiongroup  1

