# File generated by Flopy version 3.3.2 on 02/04/2021 at 16:44:32.
BEGIN griddata
  strt
    CONSTANT       1.00000000
END griddata

