# File generated by Flopy version 3.3.2 on 02/04/2021 at 18:16:35.
BEGIN options
END options

BEGIN dimensions
  MAXBOUND  2
END dimensions

BEGIN period  1
  1 1 1       1.00000000
  1 10 10       0.00000000
END period  1

