# File generated by Flopy version 3.3.2 on 02/04/2021 at 18:16:35.
BEGIN options
  BUDGET  FILEOUT  mymodel.bud
  HEAD  FILEOUT  mymodel.hds
END options

BEGIN period  1
  SAVE  HEAD  ALL
  SAVE  BUDGET  ALL
END period  1

