# File generated by Flopy version 3.3.2 on 02/04/2021 at 18:16:35.
BEGIN options
END options

