# File generated by Flopy version 3.3.2 on 02/04/2021 at 18:16:35.
BEGIN options
  SAVE_FLOWS
END options

BEGIN packages
  DIS6  mymodel.dis  dis
  IC6  mymodel.ic  ic
  RIV6  mymodel.riv  riv
  NPF6  mymodel.npf  npf
  CHD6  mymodel.chd  chd_0
  OC6  mymodel.oc  oc
END packages

