# File generated by Flopy version 3.3.2 on 01/29/2021 at 07:53:31.
BEGIN options
END options

BEGIN packages
  DIS6  Ejercicio_01_1.dis  dis
  IC6  Ejercicio_01_1.ic  ic
  NPF6  Ejercicio_01_1.npf  npf
  CHD6  Ejercicio_01_1.chd  chd_0
  OC6  Ejercicio_01_1.oc  oc
END packages

