# File generated by Flopy version 3.3.2 on 01/29/2021 at 09:05:51.
BEGIN options
  BUDGET  FILEOUT  Ejercicio_01_1.cbb
  HEAD  FILEOUT  Ejercicio_01_1.hds
END options

BEGIN period  1
  SAVE  HEAD  ALL
  SAVE  BUDGET  ALL
  PRINT  HEAD  LAST
END period  1

