# File generated by Flopy version 3.3.2 on 01/29/2021 at 11:14:17.
BEGIN options
  SAVE_FLOWS
END options

BEGIN griddata
  icelltype
    CONSTANT  1
  k
    CONSTANT       1.00000000
END griddata

