<<<<<<< HEAD
# File generated by Flopy version 3.3.2 on 01/29/2021 at 11:34:09.
=======
# File generated by Flopy version 3.3.2 on 01/29/2021 at 11:14:16.
>>>>>>> experiment1
BEGIN options
  COMPLEXITY  simple
END options

