# File generated by Flopy version 3.3.2 on 02/04/2021 at 16:39:51.
BEGIN options
  COMPLEXITY  simple
END options

