# File generated by Flopy version 3.3.2 on 01/29/2021 at 11:14:16.
BEGIN options
  COMPLEXITY  simple
END options

