# File generated by Flopy version 3.3.2 on 02/04/2021 at 16:44:29.
BEGIN options
END options

BEGIN packages
  DIS6  ejercicio1.dis  dis
  IC6  ejercicio1.ic  ic
  RIV6  ejercicio1.riv  riv
  NPF6  ejercicio1.npf  npf
  CHD6  ejercicio1.chd  chd_0
  OC6  ejercicio1.oc  oc
END packages

