# File generated by Flopy version 3.3.2 on 01/29/2021 at 11:34:09.
BEGIN options
END options

BEGIN timing
  TDIS6  Ejercicio_01_1.tdis
END timing

BEGIN models
  gwf6  Ejercicio_01_1.nam  Ejercicio_01_1
END models

BEGIN exchanges
END exchanges

BEGIN solutiongroup  1
  ims6  Ejercicio_01_1.ims  Ejercicio_01_1
END solutiongroup  1

